Version 4
SHEET 1 2020 680
WIRE 1536 -272 1424 -272
WIRE 1248 -240 1248 -272
WIRE 1424 -240 1424 -272
WIRE 1104 -224 1104 -272
WIRE 1104 -144 1104 -160
WIRE 1248 -144 1248 -160
WIRE 1424 -144 1424 -160
WIRE 1008 -80 880 -80
WIRE 880 -48 880 -80
WIRE 1008 48 1008 -80
WIRE 880 64 880 32
WIRE 960 64 880 64
WIRE 880 192 880 64
WIRE 1008 208 1008 144
WIRE 1040 208 1008 208
WIRE 1168 208 1120 208
WIRE 1248 208 1168 208
WIRE 1392 208 1248 208
WIRE 1504 208 1472 208
WIRE 1712 208 1712 176
WIRE 1712 208 1696 208
WIRE 1168 224 1168 208
WIRE 1248 224 1248 208
WIRE 624 240 592 240
WIRE 752 240 704 240
WIRE 816 240 752 240
WIRE 752 256 752 240
WIRE 1168 304 1168 288
WIRE 1248 304 1248 288
WIRE 1504 304 1488 304
WIRE 1712 304 1696 304
WIRE 1712 320 1712 304
WIRE 752 352 752 336
WIRE 880 352 880 288
WIRE 1488 416 1488 304
WIRE 1712 416 1712 400
FLAG 1424 -144 0
FLAG 1248 -144 0
FLAG 1104 -144 0
FLAG 1104 -272 5V
FLAG 1248 -272 5V
FLAG 1536 -272 DATA_REQ
FLAG 1488 416 0
FLAG 1712 416 0
FLAG 1712 176 5V
FLAG 1168 304 0
FLAG 1248 304 0
FLAG 880 -80 5V
FLAG 880 352 0
FLAG 752 352 0
FLAG 592 240 DATA_REQ
SYMBOL voltage 1248 -256 R0
WINDOW 123 0 0 Left 0
WINDOW 39 24 44 Left 2
SYMATTR SpiceLine Rser=0.5
SYMATTR InstName V1
SYMATTR Value 5
SYMBOL voltage 1424 -256 R0
SYMATTR InstName V2
SYMATTR Value PULSE(0 3.3 1m 10u 10u 1m 3m 5)
SYMBOL cap 1088 -224 R0
SYMATTR InstName C1
SYMATTR Value 470µ
SYMBOL Optos\\PC817D 1600 256 R0
SYMATTR InstName U1
SYMBOL res 1696 304 R0
SYMATTR InstName R1
SYMATTR Value 1k
SYMBOL res 1376 224 R270
WINDOW 0 32 56 VTop 2
WINDOW 3 0 56 VBottom 2
SYMATTR InstName R2
SYMATTR Value 470
SYMBOL npn 816 192 R0
SYMATTR InstName Q1
SYMATTR Value BC847B
SYMBOL pmos 960 144 M180
SYMATTR InstName M1
SYMATTR Value BSS84
SYMBOL res 1024 224 R270
WINDOW 0 32 56 VTop 2
WINDOW 3 0 56 VBottom 2
SYMATTR InstName R3
SYMATTR Value 0
SYMBOL cap 1152 224 R0
SYMATTR InstName C2
SYMATTR Value 10p
SYMBOL zener 1264 288 R180
WINDOW 0 -31 68 Left 2
WINDOW 3 -98 5 Left 2
SYMATTR InstName D1
SYMATTR Value STZ5_6N
SYMBOL res 864 -64 R0
SYMATTR InstName R4
SYMATTR Value 4k7
SYMBOL res 720 224 R90
WINDOW 0 0 56 VBottom 2
WINDOW 3 32 56 VTop 2
SYMATTR InstName R5
SYMATTR Value 1k
SYMBOL res 736 240 R0
SYMATTR InstName R6
SYMATTR Value 10k
TEXT 1376 112 Left 2 ;meter circuitry
TEXT 472 456 Left 2 !.tran 5m
RECTANGLE Normal 1776 448 1376 128 2
